******************************************************************
** Silicon Creations Confidential
** LVS Netlist for PLLTS40GFRAC - Version v3d53
** This netlist is intended to be used for layout comparison (LVS)
** Not intended for SPICE simulation
**
**
**

.subckt nmoscap_18 PLUS MINUS lr=1u wr=1u m=1
.ends

.subckt PLLTS40GFRAC BYPASS CLKSSCG DACPD DSMPD FBDIV[0] FBDIV[10] FBDIV[11]
+ FBDIV[1] FBDIV[2] FBDIV[3] FBDIV[4] FBDIV[5] FBDIV[6] FBDIV[7] FBDIV[8]
+ FBDIV[9] FOUT1PH0 FOUT1PH180 FOUT1PH270 FOUT1PH90 FOUT2 FOUT3 FOUT4
+ FOUT4PHASEPD FOUTPOSTDIV FOUTPOSTDIVPD FOUTVCO FOUTVCOPD FRAC[0] FRAC[10]
+ FRAC[11] FRAC[12] FRAC[13] FRAC[14] FRAC[15] FRAC[16] FRAC[17] FRAC[18]
+ FRAC[19] FRAC[1] FRAC[20] FRAC[21] FRAC[22] FRAC[23] FRAC[2] FRAC[3] FRAC[4]
+ FRAC[5] FRAC[6] FRAC[7] FRAC[8] FRAC[9] FREF LOCK PD POSTDIV1[0] POSTDIV1[1]
+ POSTDIV1[2] POSTDIV2[0] POSTDIV2[1] POSTDIV2[2] REFDIV[0] REFDIV[1] REFDIV[2]
+ REFDIV[3] REFDIV[4] REFDIV[5] VDDHV VDDPOST VDDREF VSS
m0 5490 5313 2 VSS nch_18 l=0.28u w=0.44u
m1 5067 5316 5490 VSS nch_18 l=0.28u w=0.44u
m2 5725 5313 5067 VSS nch_18 l=0.28u w=0.44u
m3 5786 5316 5725 VSS nch_18 l=0.28u w=0.44u
m4 VSS 4948 4795 VSS nch_18 l=0.55u w=0.44u
m5 4796 4795 VSS VSS nch_18 l=0.55u w=0.44u
m6 VSS 4869 4864 VSS nch_18 l=0.55u w=0.44u
m7 4865 4859 VSS VSS nch_18 l=0.55u w=0.44u
m8 VSS 4949 4869 VSS nch_18 l=0.55u w=0.44u
m9 4869 4795 VSS VSS nch_18 l=0.55u w=0.44u
m10 4861 4795 2 VSS nch_18 l=0.55u w=2.08u
m11 VSS 4869 4861 VSS nch_18 l=0.55u w=2.08u
m12 4862 4795 VSS VSS nch_18 l=0.55u w=2.08u
m13 2 4869 4862 VSS nch_18 l=0.55u w=2.08u
m14 VSS 4940 4859 VSS nch_18 l=0.55u w=5.44u
m15 4946 4943 VSS VSS nch_18 l=0.55u w=5.44u
m16 VSS 4961 4954 VSS nch_18 l=0.55u w=5.44u
m17 4948 4964 VSS VSS nch_18 l=0.55u w=5.44u
m18 VSS 4979 4971 VSS nch_18 l=0.55u w=5.44u
m19 4949 4983 VSS VSS nch_18 l=0.55u w=5.44u
m20 72213 4994 VSS VSS nch_18 l=0.65u w=1.3u
m21 72214 4994 VSS VSS nch_18 l=0.65u w=1.3u
m22 72215 4994 VSS VSS nch_18 l=0.65u w=1.3u
m23 72216 4994 VSS VSS nch_18 l=0.65u w=1.3u
m24 5000 5858 4994 VSS nch_18 l=0.55u w=0.65u
m25 VSS 4992 4996 VSS nch_18 l=0.55u w=0.44u
m26 5016 5040 4992 VSS nch_18 l=0.55u w=2u
m27 4994 5858 5000 VSS nch_18 l=0.55u w=0.65u
m28 72223 4994 72213 VSS nch_18 l=0.65u w=1.3u
m29 72224 4994 72214 VSS nch_18 l=0.65u w=1.3u
m30 72225 4994 72215 VSS nch_18 l=0.65u w=1.3u
m31 72226 4994 72216 VSS nch_18 l=0.65u w=1.3u
m32 5020 4996 VSS VSS nch_18 l=0.55u w=0.44u
m33 5020 4996 VSS VSS nch_18 l=0.55u w=0.44u
m34 5000 5858 4994 VSS nch_18 l=0.55u w=0.65u
m35 72230 4994 72223 VSS nch_18 l=0.65u w=1.3u
m36 72231 4994 72224 VSS nch_18 l=0.65u w=1.3u
m37 72232 4994 72225 VSS nch_18 l=0.65u w=1.3u
m38 72233 4994 72226 VSS nch_18 l=0.65u w=1.3u
m39 5040 5040 VDDREF VSS nch_18 l=0.55u w=2u
m40 VSS 4996 5020 VSS nch_18 l=0.55u w=0.44u
m41 VSS 4996 5020 VSS nch_18 l=0.55u w=0.44u
m42 4994 5858 5000 VSS nch_18 l=0.55u w=0.65u
m43 5000 4994 72230 VSS nch_18 l=0.65u w=1.3u
m44 5000 4994 72231 VSS nch_18 l=0.65u w=1.3u
m45 5000 4994 72232 VSS nch_18 l=0.65u w=1.3u
m46 5000 4994 72233 VSS nch_18 l=0.65u w=1.3u
m47 5048 5072 VSS VSS nch_18 l=0.55u w=0.44u
m48 5048 5072 VSS VSS nch_18 l=0.55u w=0.44u
m49 VDDREF 5040 5040 VSS nch_18 l=0.55u w=2u
m50 VSS 5072 5048 VSS nch_18 l=0.55u w=0.44u
m51 VSS 5072 5048 VSS nch_18 l=0.55u w=0.44u
m52 5068 5040 5050 VSS nch_18 l=0.55u w=2u
m53 72254 4994 VSS VSS nch_18 l=0.65u w=1.3u
m54 72255 4994 VSS VSS nch_18 l=0.65u w=1.3u
m55 72256 4994 VSS VSS nch_18 l=0.65u w=1.3u
m56 72257 4994 VSS VSS nch_18 l=0.65u w=1.3u
m57 5072 5068 VSS VSS nch_18 l=0.55u w=0.44u
m58 5086 5858 5067 VSS nch_18 l=0.55u w=0.65u
m59 5091 VDDHV VSS VSS nch_18 l=5u w=0.44u
m60 5091 VDDHV 4992 VSS nch_18 l=5u w=0.44u
m61 5067 5858 5086 VSS nch_18 l=0.55u w=0.65u
m62 72266 4994 72254 VSS nch_18 l=0.65u w=1.3u
m63 72267 4994 72255 VSS nch_18 l=0.65u w=1.3u
m64 72268 4994 72256 VSS nch_18 l=0.65u w=1.3u
m65 72269 4994 72257 VSS nch_18 l=0.65u w=1.3u
m66 5086 5858 5067 VSS nch_18 l=0.55u w=0.65u
m67 VSS 5093 5097 VSS nch_18 l=0.55u w=0.44u
m68 72274 4994 72266 VSS nch_18 l=0.65u w=1.3u
m69 72275 4994 72267 VSS nch_18 l=0.65u w=1.3u
m70 72276 4994 72268 VSS nch_18 l=0.65u w=1.3u
m71 72277 4994 72269 VSS nch_18 l=0.65u w=1.3u
m72 5116 5139 5093 VSS nch_18 l=0.55u w=2u
m73 5067 5858 5086 VSS nch_18 l=0.55u w=0.65u
m74 5131 5097 VSS VSS nch_18 l=0.55u w=0.44u
m75 5131 5097 VSS VSS nch_18 l=0.55u w=0.44u
m76 5086 4994 72274 VSS nch_18 l=0.65u w=1.3u
m77 5086 4994 72275 VSS nch_18 l=0.65u w=1.3u
m78 5086 4994 72276 VSS nch_18 l=0.65u w=1.3u
m79 5086 4994 72277 VSS nch_18 l=0.65u w=1.3u
m80 5139 5139 VDDREF VSS nch_18 l=0.55u w=2u
m81 VSS 5097 5131 VSS nch_18 l=0.55u w=0.44u
m82 VSS 5097 5131 VSS nch_18 l=0.55u w=0.44u
m83 5158 5183 VSS VSS nch_18 l=0.55u w=0.44u
m84 5158 5183 VSS VSS nch_18 l=0.55u w=0.44u
m85 VDDREF 5139 5139 VSS nch_18 l=0.55u w=2u
m86 72292 4994 VSS VSS nch_18 l=0.65u w=1.3u
m87 72293 4994 VSS VSS nch_18 l=0.65u w=1.3u
m88 72294 4994 VSS VSS nch_18 l=0.65u w=1.3u
m89 72295 4994 VSS VSS nch_18 l=0.65u w=1.3u
m90 5086 5858 5067 VSS nch_18 l=0.55u w=0.65u
m91 VSS 5183 5158 VSS nch_18 l=0.55u w=0.44u
m92 VSS 5183 5158 VSS nch_18 l=0.55u w=0.44u
m93 5067 5858 5086 VSS nch_18 l=0.55u w=0.65u
m94 72299 4994 72292 VSS nch_18 l=0.65u w=1.3u
m95 72300 4994 72293 VSS nch_18 l=0.65u w=1.3u
m96 72301 4994 72294 VSS nch_18 l=0.65u w=1.3u
m97 72302 4994 72295 VSS nch_18 l=0.65u w=1.3u
m98 5178 5139 5159 VSS nch_18 l=0.55u w=2u
m99 5183 5178 VSS VSS nch_18 l=0.55u w=0.44u
m100 5086 5858 5067 VSS nch_18 l=0.55u w=0.65u
m101 5190 VDDHV VSS VSS nch_18 l=5u w=0.44u
m102 5190 VDDHV 5093 VSS nch_18 l=5u w=0.44u
m103 72308 4994 72299 VSS nch_18 l=0.65u w=1.3u
m104 72309 4994 72300 VSS nch_18 l=0.65u w=1.3u
m105 72310 4994 72301 VSS nch_18 l=0.65u w=1.3u
m106 72311 4994 72302 VSS nch_18 l=0.65u w=1.3u
m107 5067 5858 5086 VSS nch_18 l=0.55u w=0.65u
m108 5086 4994 72308 VSS nch_18 l=0.65u w=1.3u
m109 5086 4994 72309 VSS nch_18 l=0.65u w=1.3u
m110 5086 4994 72310 VSS nch_18 l=0.65u w=1.3u
m111 5086 4994 72311 VSS nch_18 l=0.65u w=1.3u
m112 VSS 5048 5205 VSS nch_18 l=0.55u w=0.44u
m113 VSS 5205 5206 VSS nch_18 l=0.55u w=2u
m114 5231 5020 VSS VSS nch_18 l=0.55u w=0.44u
m115 5230 5234 VSS VSS nch_18 l=0.55u w=2u
m116 5234 5205 VSS VSS nch_18 l=0.55u w=0.44u
m117 72341 4994 VSS VSS nch_18 l=0.65u w=1.3u
m118 72342 4994 VSS VSS nch_18 l=0.65u w=1.3u
m119 72343 4994 VSS VSS nch_18 l=0.65u w=1.3u
m120 72344 4994 VSS VSS nch_18 l=0.65u w=1.3u
m121 5086 5858 5067 VSS nch_18 l=0.55u w=0.65u
m122 5067 5858 5086 VSS nch_18 l=0.55u w=0.65u
m123 72355 4994 72341 VSS nch_18 l=0.65u w=1.3u
m124 72356 4994 72342 VSS nch_18 l=0.65u w=1.3u
m125 72357 4994 72343 VSS nch_18 l=0.65u w=1.3u
m126 72358 4994 72344 VSS nch_18 l=0.65u w=1.3u
m127 VSS 5273 5249 VSS nch_18 l=0.55u w=0.44u
m128 VSS 5131 5250 VSS nch_18 l=0.55u w=0.44u
m129 VSS 5249 5251 VSS nch_18 l=0.55u w=2u
m130 5086 5858 5067 VSS nch_18 l=0.55u w=0.65u
m131 72367 4994 72355 VSS nch_18 l=0.65u w=1.3u
m132 72368 4994 72356 VSS nch_18 l=0.65u w=1.3u
m133 72369 4994 72357 VSS nch_18 l=0.65u w=1.3u
m134 72370 4994 72358 VSS nch_18 l=0.65u w=1.3u
m135 5273 5158 VSS VSS nch_18 l=0.55u w=0.44u
m136 5274 5273 VSS VSS nch_18 l=0.55u w=2u
m137 5067 5858 5086 VSS nch_18 l=0.55u w=0.65u
m138 5086 4994 72367 VSS nch_18 l=0.65u w=1.3u
m139 5086 4994 72368 VSS nch_18 l=0.65u w=1.3u
m140 5086 4994 72369 VSS nch_18 l=0.65u w=1.3u
m141 5086 4994 72370 VSS nch_18 l=0.65u w=1.3u
m142 72404 4994 VSS VSS nch_18 l=0.65u w=1.3u
m143 72405 4994 VSS VSS nch_18 l=0.65u w=1.3u
m144 72406 4994 VSS VSS nch_18 l=0.65u w=1.3u
m145 72407 4994 VSS VSS nch_18 l=0.65u w=1.3u
m146 5086 5858 5067 VSS nch_18 l=0.55u w=0.65u
m147 5312 5131 VSS VSS nch_18 l=0.55u w=0.44u
m148 5313 5312 VSS VSS nch_18 l=0.55u w=0.44u
m149 5314 5357 VSS VSS nch_18 l=0.55u w=0.44u
m150 5315 5158 VSS VSS nch_18 l=0.55u w=0.44u
m151 5316 5315 VSS VSS nch_18 l=0.55u w=0.44u
m152 5067 5858 5086 VSS nch_18 l=0.55u w=0.65u
m153 72410 4994 72404 VSS nch_18 l=0.65u w=1.3u
m154 72411 4994 72405 VSS nch_18 l=0.65u w=1.3u
m155 72412 4994 72406 VSS nch_18 l=0.65u w=1.3u
m156 72413 4994 72407 VSS nch_18 l=0.65u w=1.3u
m157 VSS 5131 5312 VSS nch_18 l=0.55u w=0.44u
m158 VSS 5312 5313 VSS nch_18 l=0.55u w=0.44u
m159 VSS 5357 5314 VSS nch_18 l=0.55u w=0.44u
m160 VSS 5158 5315 VSS nch_18 l=0.55u w=0.44u
m161 VSS 5315 5316 VSS nch_18 l=0.55u w=0.44u
m162 5086 5858 5067 VSS nch_18 l=0.55u w=0.65u
m163 5359 5020 VSS VSS nch_18 l=0.55u w=0.44u
m164 5357 5359 VSS VSS nch_18 l=0.55u w=0.44u
m165 5360 5356 VSS VSS nch_18 l=0.55u w=0.44u
m166 5358 5048 VSS VSS nch_18 l=0.55u w=0.44u
m167 5356 5358 VSS VSS nch_18 l=0.55u w=0.44u
m168 72416 4994 72410 VSS nch_18 l=0.65u w=1.3u
m169 72417 4994 72411 VSS nch_18 l=0.65u w=1.3u
m170 72418 4994 72412 VSS nch_18 l=0.65u w=1.3u
m171 72419 4994 72413 VSS nch_18 l=0.65u w=1.3u
m172 5067 5858 5086 VSS nch_18 l=0.55u w=0.65u
m173 VSS 5020 5359 VSS nch_18 l=0.55u w=0.44u
m174 VSS 5359 5357 VSS nch_18 l=0.55u w=0.44u
m175 VSS 5356 5360 VSS nch_18 l=0.55u w=0.44u
m176 VSS 5048 5358 VSS nch_18 l=0.55u w=0.44u
m177 VSS 5358 5356 VSS nch_18 l=0.55u w=0.44u
m178 5086 4994 72416 VSS nch_18 l=0.65u w=1.3u
m179 5086 4994 72417 VSS nch_18 l=0.65u w=1.3u
m180 5086 4994 72418 VSS nch_18 l=0.65u w=1.3u
m181 5086 4994 72419 VSS nch_18 l=0.65u w=1.3u
m182 72447 4994 VSS VSS nch_18 l=0.65u w=1.3u
m183 72448 4994 VSS VSS nch_18 l=0.65u w=1.3u
m184 72449 4994 VSS VSS nch_18 l=0.65u w=1.3u
m185 72450 4994 VSS VSS nch_18 l=0.65u w=1.3u
m186 5086 5858 5067 VSS nch_18 l=0.55u w=0.65u
m187 5067 5858 5086 VSS nch_18 l=0.55u w=0.65u
m188 72504 4994 72447 VSS nch_18 l=0.65u w=1.3u
m189 72505 4994 72448 VSS nch_18 l=0.65u w=1.3u
m190 72506 4994 72449 VSS nch_18 l=0.65u w=1.3u
m191 72507 4994 72450 VSS nch_18 l=0.65u w=1.3u
m192 5086 5858 5067 VSS nch_18 l=0.55u w=0.65u
m193 72508 4994 72504 VSS nch_18 l=0.65u w=1.3u
m194 72509 4994 72505 VSS nch_18 l=0.65u w=1.3u
m195 72510 4994 72506 VSS nch_18 l=0.65u w=1.3u
m196 72511 4994 72507 VSS nch_18 l=0.65u w=1.3u
m197 5067 5858 5086 VSS nch_18 l=0.55u w=0.65u
m198 5086 4994 72508 VSS nch_18 l=0.65u w=1.3u
m199 5086 4994 72509 VSS nch_18 l=0.65u w=1.3u
m200 5086 4994 72510 VSS nch_18 l=0.65u w=1.3u
m201 5086 4994 72511 VSS nch_18 l=0.65u w=1.3u
m202 72561 5809 5489 VSS nch_18 l=0.65u w=1.3u
m203 72562 5809 5489 VSS nch_18 l=0.65u w=1.3u
m204 72563 5809 5489 VSS nch_18 l=0.65u w=1.3u
m205 72564 5809 5489 VSS nch_18 l=0.65u w=1.3u
m206 5489 5823 5490 VSS nch_18 l=0.55u w=0.65u
m207 72570 4994 VSS VSS nch_18 l=0.65u w=1.3u
m208 72571 4994 VSS VSS nch_18 l=0.65u w=1.3u
m209 72572 4994 VSS VSS nch_18 l=0.65u w=1.3u
m210 72573 4994 VSS VSS nch_18 l=0.65u w=1.3u
m211 5086 5858 5067 VSS nch_18 l=0.55u w=0.65u
m212 5490 5823 5489 VSS nch_18 l=0.55u w=0.65u
m213 72576 5809 72561 VSS nch_18 l=0.65u w=1.3u
m214 72577 5809 72562 VSS nch_18 l=0.65u w=1.3u
m215 72578 5809 72563 VSS nch_18 l=0.65u w=1.3u
m216 72579 5809 72564 VSS nch_18 l=0.65u w=1.3u
m217 5067 5858 5086 VSS nch_18 l=0.55u w=0.65u
m218 72589 4994 72570 VSS nch_18 l=0.65u w=1.3u
m219 72590 4994 72571 VSS nch_18 l=0.65u w=1.3u
m220 72591 4994 72572 VSS nch_18 l=0.65u w=1.3u
m221 72592 4994 72573 VSS nch_18 l=0.65u w=1.3u
m222 5489 5823 5490 VSS nch_18 l=0.55u w=0.65u
m223 72596 5809 72576 VSS nch_18 l=0.65u w=1.3u
m224 72597 5809 72577 VSS nch_18 l=0.65u w=1.3u
m225 72598 5809 72578 VSS nch_18 l=0.65u w=1.3u
m226 72599 5809 72579 VSS nch_18 l=0.65u w=1.3u
m227 5086 5858 5067 VSS nch_18 l=0.55u w=0.65u
m228 72608 4994 72589 VSS nch_18 l=0.65u w=1.3u
m229 72609 4994 72590 VSS nch_18 l=0.65u w=1.3u
m230 72610 4994 72591 VSS nch_18 l=0.65u w=1.3u
m231 72611 4994 72592 VSS nch_18 l=0.65u w=1.3u
m232 5595 5595 VSS VSS nch_18 l=0.78u w=0.975u
m233 5490 5823 5489 VSS nch_18 l=0.55u w=0.65u
m234 VSS 5809 72596 VSS nch_18 l=0.65u w=1.3u
m235 VSS 5809 72597 VSS nch_18 l=0.65u w=1.3u
m236 VSS 5809 72598 VSS nch_18 l=0.65u w=1.3u
m237 VSS 5809 72599 VSS nch_18 l=0.65u w=1.3u
m238 5067 5858 5086 VSS nch_18 l=0.55u w=0.65u
m239 5086 4994 72608 VSS nch_18 l=0.65u w=1.3u
m240 5086 4994 72609 VSS nch_18 l=0.65u w=1.3u
m241 5086 4994 72610 VSS nch_18 l=0.65u w=1.3u
m242 5086 4994 72611 VSS nch_18 l=0.65u w=1.3u
m243 VSS 5595 5595 VSS nch_18 l=0.78u w=0.975u
m244 72648 5809 5610 VSS nch_18 l=0.65u w=1.3u
m245 72649 5809 5610 VSS nch_18 l=0.65u w=1.3u
m246 72650 5809 5610 VSS nch_18 l=0.65u w=1.3u
m247 72651 5809 5610 VSS nch_18 l=0.65u w=1.3u
m248 5643 5595 VSS VSS nch_18 l=0.78u w=0.975u
m249 72662 4994 VSS VSS nch_18 l=0.65u w=1.3u
m250 72663 4994 VSS VSS nch_18 l=0.65u w=1.3u
m251 72664 4994 VSS VSS nch_18 l=0.65u w=1.3u
m252 72665 4994 VSS VSS nch_18 l=0.65u w=1.3u
m253 5086 5858 5067 VSS nch_18 l=0.55u w=0.65u
m254 72675 5809 72648 VSS nch_18 l=0.65u w=1.3u
m255 72676 5809 72649 VSS nch_18 l=0.65u w=1.3u
m256 72677 5809 72650 VSS nch_18 l=0.65u w=1.3u
m257 72678 5809 72651 VSS nch_18 l=0.65u w=1.3u
m258 5067 5858 5086 VSS nch_18 l=0.55u w=0.65u
m259 72691 4994 72662 VSS nch_18 l=0.65u w=1.3u
m260 72692 4994 72663 VSS nch_18 l=0.65u w=1.3u
m261 72693 4994 72664 VSS nch_18 l=0.65u w=1.3u
m262 72694 4994 72665 VSS nch_18 l=0.65u w=1.3u
m263 VSS 5595 5643 VSS nch_18 l=0.78u w=0.975u
m264 72700 5809 72675 VSS nch_18 l=0.65u w=1.3u
m265 72701 5809 72676 VSS nch_18 l=0.65u w=1.3u
m266 72702 5809 72677 VSS nch_18 l=0.65u w=1.3u
m267 72703 5809 72678 VSS nch_18 l=0.65u w=1.3u
m268 5086 5858 5067 VSS nch_18 l=0.55u w=0.65u
m269 72715 4994 72691 VSS nch_18 l=0.65u w=1.3u
m270 72716 4994 72692 VSS nch_18 l=0.65u w=1.3u
m271 72717 4994 72693 VSS nch_18 l=0.65u w=1.3u
m272 72718 4994 72694 VSS nch_18 l=0.65u w=1.3u
m273 VSS 5809 72700 VSS nch_18 l=0.65u w=1.3u
m274 VSS 5809 72701 VSS nch_18 l=0.65u w=1.3u
m275 VSS 5809 72702 VSS nch_18 l=0.65u w=1.3u
m276 VSS 5809 72703 VSS nch_18 l=0.65u w=1.3u
m277 5595 5595 VSS VSS nch_18 l=0.78u w=0.975u
m278 5067 5858 5086 VSS nch_18 l=0.55u w=0.65u
m279 5086 4994 72715 VSS nch_18 l=0.65u w=1.3u
m280 5086 4994 72716 VSS nch_18 l=0.65u w=1.3u
m281 5086 4994 72717 VSS nch_18 l=0.65u w=1.3u
m282 5086 4994 72718 VSS nch_18 l=0.65u w=1.3u
m283 VSS 5595 5595 VSS nch_18 l=0.78u w=0.975u
m284 72754 5809 5723 VSS nch_18 l=0.65u w=1.3u
m285 72755 5809 5723 VSS nch_18 l=0.65u w=1.3u
m286 72756 5809 5723 VSS nch_18 l=0.65u w=1.3u
m287 72757 5809 5723 VSS nch_18 l=0.65u w=1.3u
m288 5723 5823 5725 VSS nch_18 l=0.55u w=0.65u
m289 72769 4994 VSS VSS nch_18 l=0.65u w=1.3u
m290 72770 4994 VSS VSS nch_18 l=0.65u w=1.3u
m291 72771 4994 VSS VSS nch_18 l=0.65u w=1.3u
m292 72772 4994 VSS VSS nch_18 l=0.65u w=1.3u
m293 5086 5858 5067 VSS nch_18 l=0.55u w=0.65u
m294 5643 5595 VSS VSS nch_18 l=0.78u w=0.975u
m295 5725 5823 5723 VSS nch_18 l=0.55u w=0.65u
m296 72776 5809 72754 VSS nch_18 l=0.65u w=1.3u
m297 72777 5809 72755 VSS nch_18 l=0.65u w=1.3u
m298 72778 5809 72756 VSS nch_18 l=0.65u w=1.3u
m299 72779 5809 72757 VSS nch_18 l=0.65u w=1.3u
m300 5067 5858 5086 VSS nch_18 l=0.55u w=0.65u
m301 72793 4994 72769 VSS nch_18 l=0.65u w=1.3u
m302 72794 4994 72770 VSS nch_18 l=0.65u w=1.3u
m303 72795 4994 72771 VSS nch_18 l=0.65u w=1.3u
m304 72796 4994 72772 VSS nch_18 l=0.65u w=1.3u
m305 5723 5823 5725 VSS nch_18 l=0.55u w=0.65u
m306 72804 5809 72776 VSS nch_18 l=0.65u w=1.3u
m307 72805 5809 72777 VSS nch_18 l=0.65u w=1.3u
m308 72806 5809 72778 VSS nch_18 l=0.65u w=1.3u
m309 72807 5809 72779 VSS nch_18 l=0.65u w=1.3u
m310 VSS 5595 5643 VSS nch_18 l=0.78u w=0.975u
m311 5086 5858 5067 VSS nch_18 l=0.55u w=0.65u
m312 72817 4994 72793 VSS nch_18 l=0.65u w=1.3u
m313 72818 4994 72794 VSS nch_18 l=0.65u w=1.3u
m314 72819 4994 72795 VSS nch_18 l=0.65u w=1.3u
m315 72820 4994 72796 VSS nch_18 l=0.65u w=1.3u
m316 5725 5823 5723 VSS nch_18 l=0.55u w=0.65u
m317 VSS 5809 72804 VSS nch_18 l=0.65u w=1.3u
m318 VSS 5809 72805 VSS nch_18 l=0.65u w=1.3u
m319 VSS 5809 72806 VSS nch_18 l=0.65u w=1.3u
m320 VSS 5809 72807 VSS nch_18 l=0.65u w=1.3u
m321 5067 5858 5086 VSS nch_18 l=0.55u w=0.65u
m322 5086 4994 72817 VSS nch_18 l=0.65u w=1.3u
m323 5086 4994 72818 VSS nch_18 l=0.65u w=1.3u
m324 5086 4994 72819 VSS nch_18 l=0.65u w=1.3u
m325 5086 4994 72820 VSS nch_18 l=0.65u w=1.3u
m326 72869 5823 5791 VSS nch_18 l=0.65u w=1.3u
m327 72870 5823 5791 VSS nch_18 l=0.65u w=1.3u
m328 72871 5823 5791 VSS nch_18 l=0.65u w=1.3u
m329 72872 5823 5791 VSS nch_18 l=0.65u w=1.3u
m330 72891 4994 VSS VSS nch_18 l=0.65u w=1.3u
m331 72892 4994 VSS VSS nch_18 l=0.65u w=1.3u
m332 72893 4994 VSS VSS nch_18 l=0.65u w=1.3u
m333 72894 4994 VSS VSS nch_18 l=0.65u w=1.3u
m334 5800 5858 5786 VSS nch_18 l=0.55u w=0.65u
m335 72900 5823 72869 VSS nch_18 l=0.65u w=1.3u
m336 72901 5823 72870 VSS nch_18 l=0.65u w=1.3u
m337 72902 5823 72871 VSS nch_18 l=0.65u w=1.3u
m338 72903 5823 72872 VSS nch_18 l=0.65u w=1.3u
m339 5786 5858 5800 VSS nch_18 l=0.55u w=0.65u
m340 72922 4994 72891 VSS nch_18 l=0.65u w=1.3u
m341 72923 4994 72892 VSS nch_18 l=0.65u w=1.3u
m342 72924 4994 72893 VSS nch_18 l=0.65u w=1.3u
m343 72925 4994 72894 VSS nch_18 l=0.65u w=1.3u
m344 72930 5823 72900 VSS nch_18 l=0.65u w=1.3u
m345 72931 5823 72901 VSS nch_18 l=0.65u w=1.3u
m346 72932 5823 72902 VSS nch_18 l=0.65u w=1.3u
m347 72933 5823 72903 VSS nch_18 l=0.65u w=1.3u
m348 5800 5858 5786 VSS nch_18 l=0.55u w=0.65u
m349 72949 4994 72922 VSS nch_18 l=0.65u w=1.3u
m350 72950 4994 72923 VSS nch_18 l=0.65u w=1.3u
m351 72951 4994 72924 VSS nch_18 l=0.65u w=1.3u
m352 72952 4994 72925 VSS nch_18 l=0.65u w=1.3u
m353 5823 5823 72930 VSS nch_18 l=0.65u w=1.3u
m354 5823 5823 72931 VSS nch_18 l=0.65u w=1.3u
m355 VSS 5823 72932 VSS nch_18 l=0.65u w=1.3u
m356 VSS 5823 72933 VSS nch_18 l=0.65u w=1.3u
m357 5786 5858 5800 VSS nch_18 l=0.55u w=0.65u
m358 5800 4994 72949 VSS nch_18 l=0.65u w=1.3u
m359 5800 4994 72950 VSS nch_18 l=0.65u w=1.3u
m360 5800 4994 72951 VSS nch_18 l=0.65u w=1.3u
m361 5800 4994 72952 VSS nch_18 l=0.65u w=1.3u
m362 72994 5809 5828 VSS nch_18 l=0.65u w=1.3u
m363 72995 5809 5828 VSS nch_18 l=0.65u w=1.3u
m364 72996 5809 5828 VSS nch_18 l=0.65u w=1.3u
m365 72997 5809 5828 VSS nch_18 l=0.65u w=1.3u
m366 5828 5823 5809 VSS nch_18 l=0.55u w=0.65u
m367 73006 4994 VSS VSS nch_18 l=0.65u w=1.3u
m368 73007 4994 VSS VSS nch_18 l=0.65u w=1.3u
m369 73008 4994 VSS VSS nch_18 l=0.65u w=1.3u
m370 73009 4994 VSS VSS nch_18 l=0.65u w=1.3u
m371 5800 5858 5786 VSS nch_18 l=0.55u w=0.65u
m372 5809 5823 5828 VSS nch_18 l=0.55u w=0.65u
m373 73013 5809 72994 VSS nch_18 l=0.65u w=1.3u
m374 73014 5809 72995 VSS nch_18 l=0.65u w=1.3u
m375 73015 5809 72996 VSS nch_18 l=0.65u w=1.3u
m376 73016 5809 72997 VSS nch_18 l=0.65u w=1.3u
m377 5786 5858 5800 VSS nch_18 l=0.55u w=0.65u
m378 73028 4994 73006 VSS nch_18 l=0.65u w=1.3u
m379 73029 4994 73007 VSS nch_18 l=0.65u w=1.3u
m380 73030 4994 73008 VSS nch_18 l=0.65u w=1.3u
m381 73031 4994 73009 VSS nch_18 l=0.65u w=1.3u
m382 5828 5823 5809 VSS nch_18 l=0.55u w=0.65u
m383 73033 5809 73013 VSS nch_18 l=0.65u w=1.3u
m384 73034 5809 73014 VSS nch_18 l=0.65u w=1.3u
m385 73035 5809 73015 VSS nch_18 l=0.65u w=1.3u
m386 73036 5809 73016 VSS nch_18 l=0.65u w=1.3u
m387 5800 5858 5786 VSS nch_18 l=0.55u w=0.65u
m388 73040 4994 73028 VSS nch_18 l=0.65u w=1.3u
m389 73041 4994 73029 VSS nch_18 l=0.65u w=1.3u
m390 73042 4994 73030 VSS nch_18 l=0.65u w=1.3u
m391 73043 4994 73031 VSS nch_18 l=0.65u w=1.3u
m392 5809 5823 5828 VSS nch_18 l=0.55u w=0.65u
m393 VSS 5809 73033 VSS nch_18 l=0.65u w=1.3u
m394 VSS 5809 73034 VSS nch_18 l=0.65u w=1.3u
m395 VSS 5809 73035 VSS nch_18 l=0.65u w=1.3u
m396 VSS 5809 73036 VSS nch_18 l=0.65u w=1.3u
m397 5786 5858 5800 VSS nch_18 l=0.55u w=0.65u
m398 5800 4994 73040 VSS nch_18 l=0.65u w=1.3u
m399 5800 4994 73041 VSS nch_18 l=0.65u w=1.3u
m400 5800 4994 73042 VSS nch_18 l=0.65u w=1.3u
m401 5800 4994 73043 VSS nch_18 l=0.65u w=1.3u
m402 73122 5809 5852 VSS nch_18 l=0.65u w=1.3u
m403 73123 5809 5852 VSS nch_18 l=0.65u w=1.3u
m404 73124 5809 5852 VSS nch_18 l=0.65u w=1.3u
m405 73125 5809 5852 VSS nch_18 l=0.65u w=1.3u
m406 5852 5823 5854 VSS nch_18 l=0.55u w=0.65u
m407 73133 5858 VSS VSS nch_18 l=0.65u w=1.3u
m408 73134 5858 VSS VSS nch_18 l=0.65u w=1.3u
m409 73135 5858 5858 VSS nch_18 l=0.65u w=1.3u
m410 73136 5858 5858 VSS nch_18 l=0.65u w=1.3u
m411 5854 5823 5852 VSS nch_18 l=0.55u w=0.65u
m412 73143 5809 73122 VSS nch_18 l=0.65u w=1.3u
m413 73144 5809 73123 VSS nch_18 l=0.65u w=1.3u
m414 73145 5809 73124 VSS nch_18 l=0.65u w=1.3u
m415 73146 5809 73125 VSS nch_18 l=0.65u w=1.3u
m416 73155 5858 73133 VSS nch_18 l=0.65u w=1.3u
m417 73156 5858 73134 VSS nch_18 l=0.65u w=1.3u
m418 73157 5858 73135 VSS nch_18 l=0.65u w=1.3u
m419 73158 5858 73136 VSS nch_18 l=0.65u w=1.3u
m420 5852 5823 5854 VSS nch_18 l=0.55u w=0.65u
m421 73162 5809 73143 VSS nch_18 l=0.65u w=1.3u
m422 73163 5809 73144 VSS nch_18 l=0.65u w=1.3u
m423 73164 5809 73145 VSS nch_18 l=0.65u w=1.3u
m424 73165 5809 73146 VSS nch_18 l=0.65u w=1.3u
m425 73173 5858 73155 VSS nch_18 l=0.65u w=1.3u
m426 73174 5858 73156 VSS nch_18 l=0.65u w=1.3u
m427 73175 5858 73157 VSS nch_18 l=0.65u w=1.3u
m428 73176 5858 73158 VSS nch_18 l=0.65u w=1.3u
m429 5854 5823 5852 VSS nch_18 l=0.55u w=0.65u
m430 VSS 5809 73162 VSS nch_18 l=0.65u w=1.3u
m431 VSS 5809 73163 VSS nch_18 l=0.65u w=1.3u
m432 VSS 5809 73164 VSS nch_18 l=0.65u w=1.3u
m433 VSS 5809 73165 VSS nch_18 l=0.65u w=1.3u
m434 5882 5858 73173 VSS nch_18 l=0.65u w=1.3u
m435 5882 5858 73174 VSS nch_18 l=0.65u w=1.3u
m436 5882 5858 73175 VSS nch_18 l=0.65u w=1.3u
m437 5882 5858 73176 VSS nch_18 l=0.65u w=1.3u
m438 6 PD VSS VSS nch l=0.04u w=0.4u
m439 VSS 6 8 VSS nch l=0.04u w=0.8u
m440 8 6 VSS VSS nch l=0.04u w=0.8u
m441 9 FREF 8 VSS nch l=0.04u w=0.62u
m442 10 FREF VSS VSS nch l=0.04u w=0.4u
m443 11 9 VSS VSS nch l=0.04u w=0.4u
m444 12 10 VSS VSS nch l=0.04u w=0.4u
m445 VSS 9 11 VSS nch l=0.04u w=0.4u
m446 VSS 10 12 VSS nch l=0.04u w=0.4u
m447 11 9 VSS VSS nch l=0.04u w=0.4u
m448 12 10 VSS VSS nch l=0.04u w=0.4u
m449 VSS 9 11 VSS nch l=0.04u w=0.4u
m450 VSS 10 12 VSS nch l=0.04u w=0.4u
m451 15 REFDIV[3] VSS VSS nch l=0.04u w=0.4u
m452 VSS 212 13 VSS nch l=0.04u w=0.8u
m453 VSS 30 14 VSS nch l=0.04u w=0.4u
m454 69143 110 VSS VSS nch l=0.04u w=0.8u
m455 69144 66 VSS VSS nch l=0.04u w=0.8u
m456 VSS REFDIV[4] 15 VSS nch l=0.04u w=0.4u
m457 13 212 VSS VSS nch l=0.04u w=0.8u
m458 17 91 69143 VSS nch l=0.04u w=0.8u
m459 18 94 69144 VSS nch l=0.04u w=0.8u
m460 15 REFDIV[5] VSS VSS nch l=0.04u w=0.4u
m461 16 11 13 VSS nch l=0.04u w=0.8u
m462 VSS 19 19 VSS nch l=0.04u w=0.8u
m463 69154 138 VSS VSS nch l=0.04u w=0.8u
m464 69155 77 21 VSS nch l=0.04u w=0.8u
m465 69156 130 VSS VSS nch l=0.04u w=0.8u
m466 69157 139 VSS VSS nch l=0.04u w=0.8u
m467 69158 78 22 VSS nch l=0.04u w=0.8u
m468 69159 140 VSS VSS nch l=0.04u w=0.8u
m469 69160 2616 VSS VSS nch l=0.04u w=0.8u
m470 69161 2616 VSS VSS nch l=0.04u w=0.8u
m471 VSS 23 23 VSS nch l=0.04u w=0.8u
m472 69162 141 VSS VSS nch l=0.04u w=0.8u
m473 69163 79 25 VSS nch l=0.04u w=0.8u
m474 69164 FRAC[0] VSS VSS nch l=0.04u w=0.8u
m475 43 60 VSS VSS nch l=0.04u w=0.4u
m476 44 61 VSS VSS nch l=0.04u w=0.4u
m477 VSS 109 26 VSS nch l=0.04u w=0.4u
m478 69165 81 27 VSS nch l=0.04u w=0.8u
m479 69166 132 VSS VSS nch l=0.04u w=0.8u
m480 46 4328 VSS VSS nch l=0.04u w=0.4u
m481 47 4328 VSS VSS nch l=0.04u w=0.4u
m482 69167 145 VSS VSS nch l=0.04u w=0.8u
m483 69168 82 28 VSS nch l=0.04u w=0.8u
m484 69169 146 VSS VSS nch l=0.04u w=0.8u
m485 69170 26 VSS VSS nch l=0.04u w=0.8u
m486 51 4328 VSS VSS nch l=0.04u w=0.4u
m487 52 4328 VSS VSS nch l=0.04u w=0.4u
m488 69171 141 VSS VSS nch l=0.04u w=0.8u
m489 69172 83 29 VSS nch l=0.04u w=0.8u
m490 69173 FRAC[0] VSS VSS nch l=0.04u w=0.8u
m491 69174 26 VSS VSS nch l=0.04u w=0.8u
m492 69175 84 30 VSS nch l=0.04u w=0.8u
m493 VSS 31 31 VSS nch l=0.04u w=0.8u
m494 VSS 34 34 VSS nch l=0.04u w=0.8u
m495 35 125 69154 VSS nch l=0.04u w=0.8u
m496 VSS 246 69155 VSS nch l=0.04u w=0.8u
m497 36 126 69156 VSS nch l=0.04u w=0.8u
m498 37 127 69157 VSS nch l=0.04u w=0.8u
m499 VSS 247 69158 VSS nch l=0.04u w=0.8u
m500 38 128 69159 VSS nch l=0.04u w=0.8u
m501 39 298 69160 VSS nch l=0.04u w=0.8u
m502 40 299 69161 VSS nch l=0.04u w=0.8u
m503 41 129 69162 VSS nch l=0.04u w=0.8u
m504 VSS 248 69163 VSS nch l=0.04u w=0.8u
m505 42 130 69164 VSS nch l=0.04u w=0.8u
m506 58 69 43 VSS nch l=0.04u w=0.4u
m507 59 70 44 VSS nch l=0.04u w=0.4u
m508 VSS 249 69165 VSS nch l=0.04u w=0.8u
m509 45 131 69166 VSS nch l=0.04u w=0.8u
m510 48 132 69167 VSS nch l=0.04u w=0.8u
m511 VSS 250 69168 VSS nch l=0.04u w=0.8u
m512 49 133 69169 VSS nch l=0.04u w=0.8u
m513 50 134 69170 VSS nch l=0.04u w=0.8u
m514 53 135 69171 VSS nch l=0.04u w=0.8u
m515 VSS 251 69172 VSS nch l=0.04u w=0.8u
m516 54 136 69173 VSS nch l=0.04u w=0.8u
m517 55 FBDIV[0] 69174 VSS nch l=0.04u w=0.8u
m518 VSS 2648 69175 VSS nch l=0.04u w=0.8u
m519 VSS 56 56 VSS nch l=0.04u w=0.8u
m520 VSS 20 VSS VSS nch l=0.26u w=0.8u
m521 VSS 24 VSS VSS nch l=0.26u w=0.8u
m522 67 91 VSS VSS nch l=0.04u w=0.4u
m523 68 94 VSS VSS nch l=0.04u w=0.4u
m524 69 43 58 VSS nch l=0.04u w=0.4u
m525 70 44 59 VSS nch l=0.04u w=0.4u
m526 75 REFDIV[1] VSS VSS nch l=0.04u w=0.4u
m527 76 16 VSS VSS nch l=0.04u w=0.4u
m528 80 4328 VSS VSS nch l=0.04u w=0.4u
m529 71 46 62 VSS nch l=0.04u w=0.4u
m530 72 47 63 VSS nch l=0.04u w=0.4u
m531 73 51 64 VSS nch l=0.04u w=0.4u
m532 74 52 65 VSS nch l=0.04u w=0.4u
m533 VSS 110 66 VSS nch l=0.04u w=0.4u
m534 VSS 32 VSS VSS nch l=0.26u w=0.8u
m535 VSS 33 VSS VSS nch l=0.26u w=0.8u
m536 89 110 67 VSS nch l=0.04u w=0.4u
m537 90 66 68 VSS nch l=0.04u w=0.4u
m538 VSS REFDIV[2] 75 VSS nch l=0.04u w=0.4u
m539 VSS 16 76 VSS nch l=0.04u w=0.4u
m540 92 125 VSS VSS nch l=0.04u w=0.4u
m541 69184 1159 77 VSS nch l=0.04u w=0.8u
m542 93 126 VSS VSS nch l=0.04u w=0.4u
m543 95 127 VSS VSS nch l=0.04u w=0.4u
m544 69185 1162 78 VSS nch l=0.04u w=0.8u
m545 96 128 VSS VSS nch l=0.04u w=0.4u
m546 97 39 VSS VSS nch l=0.04u w=0.4u
m547 98 40 VSS VSS nch l=0.04u w=0.4u
m548 99 129 VSS VSS nch l=0.04u w=0.4u
m549 69186 1165 79 VSS nch l=0.04u w=0.8u
m550 100 130 VSS VSS nch l=0.04u w=0.4u
m551 69187 131 81 VSS nch l=0.04u w=0.8u
m552 101 131 VSS VSS nch l=0.04u w=0.4u
m553 69188 4328 71 VSS nch l=0.04u w=0.12u
m554 69189 4328 72 VSS nch l=0.04u w=0.12u
m555 102 132 VSS VSS nch l=0.04u w=0.4u
m556 69190 1169 82 VSS nch l=0.04u w=0.8u
m557 103 133 VSS VSS nch l=0.04u w=0.4u
m558 104 134 VSS VSS nch l=0.04u w=0.4u
m559 69191 4328 73 VSS nch l=0.04u w=0.12u
m560 69192 4328 74 VSS nch l=0.04u w=0.12u
m561 105 135 VSS VSS nch l=0.04u w=0.4u
m562 69193 1173 83 VSS nch l=0.04u w=0.8u
m563 106 136 VSS VSS nch l=0.04u w=0.4u
m564 107 FBDIV[0] VSS VSS nch l=0.04u w=0.4u
m565 VSS 154 84 VSS nch l=0.04u w=0.4u
m566 108 DSMPD VSS VSS nch l=0.04u w=0.4u
m567 VSS 57 VSS VSS nch l=0.26u w=0.8u
m568 VSS 86 86 VSS nch l=0.04u w=0.8u
m569 VSS 87 87 VSS nch l=0.04u w=0.8u
m570 VSS 20 VSS VSS nch l=0.26u w=0.8u
m571 VSS 24 VSS VSS nch l=0.26u w=0.8u
m572 110 67 89 VSS nch l=0.04u w=0.4u
m573 66 68 90 VSS nch l=0.04u w=0.4u
m574 76 16 VSS VSS nch l=0.04u w=0.4u
m575 111 138 92 VSS nch l=0.04u w=0.4u
m576 69194 311 69184 VSS nch l=0.04u w=0.8u
m577 112 130 93 VSS nch l=0.04u w=0.4u
m578 113 139 95 VSS nch l=0.04u w=0.4u
m579 69195 312 69185 VSS nch l=0.04u w=0.8u
m580 114 140 96 VSS nch l=0.04u w=0.4u
m581 115 141 99 VSS nch l=0.04u w=0.4u
m582 69196 314 69186 VSS nch l=0.04u w=0.8u
m583 116 FRAC[0] 100 VSS nch l=0.04u w=0.4u
m584 69197 316 69187 VSS nch l=0.04u w=0.8u
m585 118 132 101 VSS nch l=0.04u w=0.4u
m586 VSS 143 69188 VSS nch l=0.04u w=0.12u
m587 VSS 144 69189 VSS nch l=0.04u w=0.12u
m588 119 145 102 VSS nch l=0.04u w=0.4u
m589 69198 317 69190 VSS nch l=0.04u w=0.8u
m590 120 146 103 VSS nch l=0.04u w=0.4u
m591 121 26 104 VSS nch l=0.04u w=0.4u
m592 VSS 147 69191 VSS nch l=0.04u w=0.12u
m593 VSS 148 69192 VSS nch l=0.04u w=0.12u
m594 122 141 105 VSS nch l=0.04u w=0.4u
m595 69199 319 69193 VSS nch l=0.04u w=0.8u
m596 123 FRAC[0] 106 VSS nch l=0.04u w=0.4u
m597 124 26 107 VSS nch l=0.04u w=0.4u
m598 69200 14 VSS VSS nch l=0.04u w=0.12u
m599 117 80 109 VSS nch l=0.04u w=0.4u
m600 VSS 32 VSS VSS nch l=0.26u w=0.8u
m601 VSS 33 VSS VSS nch l=0.26u w=0.8u
m602 VSS 16 76 VSS nch l=0.04u w=0.4u
m603 138 92 111 VSS nch l=0.04u w=0.4u
m604 VSS 160 69194 VSS nch l=0.04u w=0.8u
m605 130 93 112 VSS nch l=0.04u w=0.4u
m606 139 95 113 VSS nch l=0.04u w=0.4u
m607 VSS 162 69195 VSS nch l=0.04u w=0.8u
m608 140 96 114 VSS nch l=0.04u w=0.4u
m609 141 99 115 VSS nch l=0.04u w=0.4u
m610 VSS 163 69196 VSS nch l=0.04u w=0.8u
m611 FRAC[0] 100 116 VSS nch l=0.04u w=0.4u
m612 VSS 164 69197 VSS nch l=0.04u w=0.8u
m613 132 101 118 VSS nch l=0.04u w=0.4u
m614 143 71 VSS VSS nch l=0.04u w=0.4u
m615 144 72 VSS VSS nch l=0.04u w=0.4u
m616 145 102 119 VSS nch l=0.04u w=0.4u
m617 VSS 165 69198 VSS nch l=0.04u w=0.8u
m618 146 103 120 VSS nch l=0.04u w=0.4u
m619 26 104 121 VSS nch l=0.04u w=0.4u
m620 147 73 VSS VSS nch l=0.04u w=0.4u
m621 148 74 VSS VSS nch l=0.04u w=0.4u
m622 141 105 122 VSS nch l=0.04u w=0.4u
m623 VSS 166 69199 VSS nch l=0.04u w=0.8u
m624 FRAC[0] 106 123 VSS nch l=0.04u w=0.4u
m625 26 107 124 VSS nch l=0.04u w=0.4u
m626 69201 75 VSS VSS nch l=0.04u w=0.8u
m627 154 270 69200 VSS nch l=0.04u w=0.12u
m628 150 4328 VSS VSS nch l=0.04u w=0.4u
m629 151 4328 VSS VSS nch l=0.04u w=0.4u
m630 152 4328 VSS VSS nch l=0.04u w=0.4u
m631 153 4328 VSS VSS nch l=0.04u w=0.4u
m632 69202 4328 117 VSS nch l=0.04u w=0.12u
m633 69203 14 VSS VSS nch l=0.04u w=0.8u
m634 VSS 57 VSS VSS nch l=0.26u w=0.8u
m635 VSS 85 VSS VSS nch l=0.26u w=0.8u
m636 VSS 88 VSS VSS nch l=0.26u w=0.8u
m637 VSS 20 VSS VSS nch l=0.26u w=0.8u
m638 VSS 24 VSS VSS nch l=0.26u w=0.8u
m639 156 4328 VSS VSS nch l=0.04u w=0.4u
m640 157 4328 VSS VSS nch l=0.04u w=0.4u
m641 76 16 VSS VSS nch l=0.04u w=0.4u
m642 149 15 69201 VSS nch l=0.04u w=0.8u
m643 158 886 154 VSS nch l=0.04u w=0.4u
m644 VSS 177 69202 VSS nch l=0.04u w=0.12u
m645 155 108 69203 VSS nch l=0.04u w=0.8u
m646 VSS 32 VSS VSS nch l=0.26u w=0.8u
m647 VSS 33 VSS VSS nch l=0.26u w=0.8u
m648 VSS 16 76 VSS nch l=0.04u w=0.4u
m649 VSS 57 VSS VSS nch l=0.26u w=0.8u